<routes>
    <vType id="car" accel="2.0" decel="4.5" maxSpeed="50" length="5"/>

    <route id="route1" edges="AB BC CD DA"/>
    <route id="route2" edges="DA CD BC AB"/>

    <vehicle id="veh0" type="car" route="route1" depart="0"/>
    <vehicle id="veh1" type="car" route="route2" depart="5"/>
</routes>
